Version 4
SHEET 1 2404 1240
WIRE 1744 64 1728 64
WIRE 1760 64 1744 64
WIRE 1856 64 1840 64
WIRE 1872 64 1856 64
WIRE 1968 64 1952 64
WIRE 1984 64 1968 64
WIRE 2080 64 2064 64
WIRE 2096 64 2080 64
WIRE 2192 64 2176 64
WIRE 2224 64 2192 64
WIRE 96 224 48 224
WIRE 128 224 96 224
WIRE 224 240 192 240
WIRE 272 240 224 240
WIRE 1984 288 1712 288
WIRE 96 336 96 224
WIRE 128 336 96 336
WIRE 224 336 224 240
WIRE 224 336 208 336
WIRE 1984 464 1712 464
WIRE 256 640 0 640
WIRE 1984 640 1712 640
WIRE 1152 800 912 800
WIRE 1968 816 1696 816
WIRE 1152 880 912 880
WIRE 192 928 16 928
WIRE 1152 944 912 944
WIRE 192 992 16 992
WIRE 1968 992 1696 992
FLAG -960 544 0
FLAG -992 272 0
FLAG -992 192 VBat
FLAG -960 464 VBuck
FLAG 192 176 VBuck
FLAG -32 224 VBat
FLAG 272 240 U1_out
FLAG 128 192 0
FLAG -864 544 0
FLAG -864 464 VBuckMinus
FLAG 192 208 VBuckMinus
FLAG 1648 64 VBuck
FLAG 1712 224 VBuck
FLAG 1712 256 VBuckMinus
FLAG 1744 64 fourv
FLAG 1648 240 fourv
FLAG 2128 288 VBuck
FLAG 1712 400 VBuck
FLAG 1712 432 VBuckMinus
FLAG 2128 464 VBuck
FLAG 1856 64 threev
FLAG 1968 64 twov
FLAG 2080 64 onev
FLAG 1712 576 VBuck
FLAG 1712 608 VBuckMinus
FLAG 2128 640 VBuck
FLAG 1696 752 VBuck
FLAG 1696 784 VBuckMinus
FLAG 2112 816 VBuck
FLAG 1696 928 VBuck
FLAG 1696 960 VBuckMinus
FLAG 2112 992 VBuck
FLAG 2304 64 0
FLAG 2192 64 zerov
FLAG 1648 416 threev
FLAG 1648 592 twov
FLAG 1632 768 onev
FLAG 1632 944 zerov
FLAG 128 464 U8_+
FLAG 128 496 U8_-
FLAG 192 448 U8_VCC
FLAG 192 480 U8_VDD
FLAG 192 512 U8_OUT
FLAG 0 640 U8_+
FLAG 256 640 0
FLAG 96 720 VBat
FLAG 176 832 U8_-
FLAG 96 832 U8_OUT
FLAG 176 720 U8_-
FLAG 192 928 U8_VCC
FLAG 192 992 U8_VDD
FLAG 16 928 VBuck
FLAG 16 992 VBuckMinus
FLAG 1072 592 U9_VCC
FLAG 1072 624 U9_VDD
FLAG 1072 656 U9_OUT
FLAG 1008 608 U9_+
FLAG 1008 640 U9_-
FLAG 912 800 U9_+
FLAG 1152 800 0
FLAG 912 880 U9_VCC
FLAG 912 944 U9_VDD
FLAG 1152 880 VBuck
FLAG 1152 944 VBuckMinus
FLAG 960 1024 U9_-
FLAG 1040 1024 U8_OUT
FLAG 960 1152 U9_-
FLAG 1040 1152 U9_OUT
FLAG 1648 272 U9_OUT
FLAG 1648 448 U9_OUT
FLAG 1648 624 U9_OUT
FLAG 1632 800 U9_OUT
FLAG 1632 976 U9_OUT
SYMBOL voltage -992 176 R0
WINDOW 123 0 0 Left 0
WINDOW 39 0 0 Left 0
SYMATTR InstName V1
SYMATTR Value SINE(12 12 1k)
SYMBOL voltage -960 448 R0
WINDOW 123 0 0 Left 0
WINDOW 39 0 0 Left 0
SYMATTR InstName V2
SYMATTR Value 5
SYMBOL BRICK_BY_BRICK\\amp_tlv27x_highVdd 160 208 R0
SYMATTR InstName U1
SYMBOL res 64 208 R90
WINDOW 0 0 56 VBottom 2
WINDOW 3 32 56 VTop 2
SYMATTR InstName R1
SYMATTR Value {RIN}
SYMBOL res 224 320 R90
WINDOW 0 0 56 VBottom 2
WINDOW 3 32 56 VTop 2
SYMATTR InstName R2
SYMATTR Value {RFB}
SYMBOL voltage -864 448 R0
WINDOW 123 0 0 Left 0
WINDOW 39 0 0 Left 0
SYMATTR InstName V3
SYMATTR Value -5
SYMBOL res 1744 48 R90
WINDOW 0 0 56 VBottom 2
WINDOW 3 32 56 VTop 2
SYMATTR InstName R5
SYMATTR Value 10K
SYMBOL res 1856 48 R90
WINDOW 0 0 56 VBottom 2
WINDOW 3 32 56 VTop 2
SYMATTR InstName R6
SYMATTR Value 10K
SYMBOL res 1968 48 R90
WINDOW 0 0 56 VBottom 2
WINDOW 3 32 56 VTop 2
SYMATTR InstName R7
SYMATTR Value 10K
SYMBOL res 2080 48 R90
WINDOW 0 0 56 VBottom 2
WINDOW 3 32 56 VTop 2
SYMATTR InstName R8
SYMATTR Value 10k
SYMBOL BRICK_BY_BRICK\\LM393 1680 256 R0
SYMATTR InstName U3
SYMBOL res 2144 272 R90
WINDOW 0 0 56 VBottom 2
WINDOW 3 32 56 VTop 2
SYMATTR InstName R12
SYMATTR Value 100
SYMBOL diode 2048 272 R90
WINDOW 0 0 32 VBottom 2
WINDOW 3 32 32 VTop 2
SYMATTR InstName D1
SYMBOL BRICK_BY_BRICK\\LM393 1680 432 R0
SYMATTR InstName U4
SYMBOL res 2144 448 R90
WINDOW 0 0 56 VBottom 2
WINDOW 3 32 56 VTop 2
SYMATTR InstName R11
SYMATTR Value 100
SYMBOL diode 2048 448 R90
WINDOW 0 0 32 VBottom 2
WINDOW 3 32 32 VTop 2
SYMATTR InstName D2
SYMBOL res 2192 48 R90
WINDOW 0 0 56 VBottom 2
WINDOW 3 32 56 VTop 2
SYMATTR InstName R9
SYMATTR Value 10k
SYMBOL BRICK_BY_BRICK\\LM393 1680 608 R0
SYMATTR InstName U5
SYMBOL res 2144 624 R90
WINDOW 0 0 56 VBottom 2
WINDOW 3 32 56 VTop 2
SYMATTR InstName R10
SYMATTR Value 100
SYMBOL diode 2048 624 R90
WINDOW 0 0 32 VBottom 2
WINDOW 3 32 32 VTop 2
SYMATTR InstName D3
SYMBOL BRICK_BY_BRICK\\LM393 1664 784 R0
SYMATTR InstName U6
SYMBOL res 2128 800 R90
WINDOW 0 0 56 VBottom 2
WINDOW 3 32 56 VTop 2
SYMATTR InstName R13
SYMATTR Value 100
SYMBOL diode 2032 800 R90
WINDOW 0 0 32 VBottom 2
WINDOW 3 32 32 VTop 2
SYMATTR InstName D4
SYMBOL BRICK_BY_BRICK\\LM393 1664 960 R0
SYMATTR InstName U7
SYMBOL res 2128 976 R90
WINDOW 0 0 56 VBottom 2
WINDOW 3 32 56 VTop 2
SYMATTR InstName R14
SYMATTR Value 100
SYMBOL diode 2032 976 R90
WINDOW 0 0 32 VBottom 2
WINDOW 3 32 32 VTop 2
SYMATTR InstName D5
SYMBOL res 2320 48 R90
WINDOW 0 0 56 VBottom 2
WINDOW 3 32 56 VTop 2
SYMATTR InstName R15
SYMATTR Value 10k
SYMBOL BRICK_BY_BRICK\\amp_tlv27x_highVdd 160 480 R0
SYMATTR InstName U8
SYMBOL res 192 704 R90
WINDOW 0 0 56 VBottom 2
WINDOW 3 32 56 VTop 2
SYMATTR InstName R16
SYMATTR Value {RIN}
SYMBOL res 192 816 R90
WINDOW 0 0 56 VBottom 2
WINDOW 3 32 56 VTop 2
SYMATTR InstName R17
SYMATTR Value {RFB}
SYMBOL BRICK_BY_BRICK\\amp_tlv27x_highVdd 1040 624 R0
SYMATTR InstName U9
SYMBOL res 1056 1008 R90
WINDOW 0 0 56 VBottom 2
WINDOW 3 32 56 VTop 2
SYMATTR InstName R18
SYMATTR Value 10k
SYMBOL res 1056 1136 R90
WINDOW 0 0 56 VBottom 2
WINDOW 3 32 56 VTop 2
SYMATTR InstName R19
SYMATTR Value 10k
TEXT 56 8 Left 2 !.param RIN= 96k
TEXT 56 32 Left 2 !.param RFB=20k
TEXT -648 440 Left 2 !.tran 10m
TEXT -1024 56 Left 2 ;These are voltage sources. They come from 24V lipo battery,\n5v buck converter, and -5V DC-DC charge pump/inverter
TEXT -288 128 Left 2 ;|\n|\n|\n|\n|\n|\n|\n|\n|\n|\n|\n|\n|\n|\n|\n|
TEXT -128 -56 Left 2 ;we want the gain to be about 5/24 which we\ncan acheivevee exactly (assuming 0 tolerance)
TEXT -288 576 Left 2 ;|\n|\n|\n|\n|\n|\n|\n|\n|\n|\n|\n|\n|\n|\n|\n|
TEXT 464 136 Left 2 ;|\n|\n|\n|\n|\n|\n|\n|\n|\n|\n|\n|\n|\n|\n|\n|
TEXT 464 584 Left 2 ;|\n|\n|\n|\n|\n|\n|\n|\n|\n|\n|\n|\n|\n|\n|\n|
TEXT -48 -96 Left 2 ;Take VBat and scale it down
TEXT 624 1224 Left 2 ;10k isn't important just make sure the resistors have THE SAME value
TEXT 1360 -32 Left 2 ;|\n|\n|\n|\n|\n|\n|\n|\n|\n|\n|\n|\n|\n|\n|\n|
TEXT 1360 416 Left 2 ;|\n|\n|\n|\n|\n|\n|\n|\n|\n|\n|\n|\n|\n|\n|\n|
TEXT 624 240 Left 2 ;simple inverter op amp takes the voltage and multiplies by -1
TEXT 1648 -104 Left 2 ;you have some more creative freedom with this seciton:\nWe have the scaled signal so what should we do with it now?!?!?
